[General]
  Version          = 1.0
  CaseDescription  = De Lymen: backward compatibility xyz-files converted to NetCDF-files
  Branch           = Maas
  Reach            = Grave-Lith                   km  176-200
  Mode             = D-Flow FM map
  Qthreshold       = 1500.0
  Ucrit            = 0.3

[Q3]
  Discharge        = 1971.0
  Reference        = reference_sds\SDS-L2_map.nc
  WithMeasure      = variant_sds\SDS-L2_map.nc
