[General]
  Version     = 1.0
  Branch      = Maas
  Reach       = Grave-Lith                   km  176-200
  Mode        = D-Flow FM map
  Qthreshold  = 1250.0
  Qbankfull   = 1500.0
  Ucrit       = 0.3

[Q1]
  Discharge   = 1250.0
  Reference   = 
  WithMeasure = 

[Q2]
  Discharge   = 1500.0
  Reference   = reference_sds\SDS-L2_map.nc
  WithMeasure = reference_sds\SDS-L2_map.nc

[Q3]
  Discharge   = 2000.0
  Reference   = reference_sds\SDS-L2_map.nc
  WithMeasure = variant_sds\SDS-L2_map.nc
