[General]
  Version     = 1.0
  Branch      = Bovenrijn & Waal
  Reach       = Boven-Waal                   km  868-886
  Mode        = D-Flow FM map
  Qbankfull   = 4000.0
  Ucrit       = 0.3

[Q1]
  Discharge   = 3000.0
  Reference   = reference-Q1_map.nc
  WithMeasure = intervention-Q1_map.nc

[Q2]
  Discharge   = 4000.0
  Reference   = reference-Q2_map.nc
  WithMeasure = intervention-Q2_map.nc

[Q3]
  Discharge   = 6000.0
  Reference   = reference-Q3_map.nc
  WithMeasure = intervention-Q3_map.nc
