[General]
  Version     = 1.0
  Branch      = Bovenrijn & Waal
  Reach       = Boven-Waal                   km  868-886
  Mode        = D-Flow FM map
  Qthreshold  = 4000.0
  Ucrit       = 0.3

[Q1]
  Discharge   = 4000.0
  Reference   = 
  WithMeasure = 

[Q3]
  Discharge   = 6000.0
  Reference   = reference-Q3_map.nc
  WithMeasure = measure-Q3_map.nc
